version 2
run General-0-20201207-16:35:09-87201
attr configname General
attr datetime 20201207-16:35:09
attr experiment General
attr inifile omnetpp.ini
attr iterationvars ""
attr iterationvars2 $repetition=0
attr measurement ""
attr network Nodes1Paths2
attr processid 87201
attr repetition 0
attr replication #0
attr resultdir results
attr runnumber 0
attr seedset 0

