version 2
run General-0-20200918-13:14:54-522443
attr configname General
attr datetime 20200918-13:14:54
attr experiment General
attr inifile omnetpp.ini
attr iterationvars ""
attr iterationvars2 $repetition=0
attr measurement ""
attr network Nodes_2_paths_2
attr processid 522443
attr repetition 0
attr replication #0
attr resultdir results
attr runnumber 0
attr seedset 0

